Version 4
SHEET 1 908 916
WIRE -560 -80 -704 -80
WIRE -336 -64 -496 -64
WIRE -624 -48 -704 -48
WIRE -560 -48 -624 -48
WIRE -336 -32 -336 -64
WIRE -704 -16 -704 -48
WIRE -528 16 -528 -32
WIRE 288 80 240 80
WIRE -336 96 -336 32
WIRE -272 96 -336 96
WIRE -208 96 -272 96
WIRE 512 96 352 96
WIRE 608 96 512 96
WIRE -64 112 -128 112
WIRE 0 112 -64 112
WIRE 176 112 80 112
WIRE 288 112 176 112
WIRE -272 128 -336 128
WIRE -208 128 -272 128
WIRE -1184 144 -1184 80
WIRE -1072 144 -1072 80
WIRE 176 176 176 112
WIRE 240 176 240 80
WIRE 368 176 240 176
WIRE 512 176 512 96
WIRE 512 176 448 176
WIRE -336 192 -336 128
WIRE 320 192 320 128
WIRE 240 240 240 176
WIRE -560 288 -704 288
WIRE -912 304 -960 304
WIRE -336 304 -336 256
WIRE -336 304 -496 304
WIRE -736 320 -848 320
WIRE -624 320 -736 320
WIRE -560 320 -624 320
WIRE 176 320 176 240
WIRE -912 336 -928 336
WIRE -1216 352 -1216 336
WIRE -528 400 -528 336
WIRE -1216 448 -1216 432
WIRE -1216 528 -1216 512
WIRE -928 528 -928 336
WIRE -928 528 -1216 528
WIRE -960 544 -960 304
WIRE -896 544 -960 544
WIRE -736 544 -736 320
WIRE -736 544 -816 544
WIRE -1216 560 -1216 528
WIRE -960 576 -960 544
WIRE -1216 672 -1216 640
WIRE -960 688 -960 656
FLAG -64 112 XOR_out
FLAG -272 96 XOR_in1
FLAG -272 128 XOR_in2
FLAG -1072 144 0
FLAG -1072 0 +5V_78
IOPIN -1072 0 Out
FLAG -704 64 0
FLAG -528 -96 +5V_78
IOPIN -528 -96 In
FLAG -528 272 +5V_78
IOPIN -528 272 In
FLAG 176 320 0
FLAG -704 -80 0
FLAG -704 288 0
FLAG -1216 672 0
FLAG -880 352 -5V_CP
IOPIN -880 352 In
FLAG -880 288 +5V_78
IOPIN -880 288 In
FLAG -960 688 0
FLAG -1216 256 0
FLAG -1184 144 0
FLAG -1184 0 -5V_CP
IOPIN -1184 0 Out
FLAG 608 96 Phase_Shift_Voltage
IOPIN 608 96 Out
FLAG -624 -48 Voltage_in
FLAG -624 320 Current_in
FLAG -528 16 -5V_CP
IOPIN -528 16 In
FLAG -528 400 -5V_CP
IOPIN -528 400 In
FLAG 320 64 +5V_78
IOPIN 320 64 In
FLAG 240 320 0
FLAG 320 192 0
SYMBOL XOR_2 -160 112 R0
SYMATTR InstName U1
SYMBOL voltage -1072 -16 R0
WINDOW 123 0 0 Left 0
WINDOW 39 0 0 Left 0
SYMATTR InstName V3
SYMATTR Value 5
SYMBOL voltage -704 -32 R0
WINDOW 3 -252 57 Left 2
WINDOW 123 0 0 Left 0
WINDOW 39 0 0 Left 0
SYMATTR Value SINE(0 2 50 0 0 0)
SYMATTR InstName V4
SYMBOL Opamps\\opamp2 -528 -128 R0
SYMATTR InstName U3
SYMATTR Value TLC2272
SYMBOL Opamps\\opamp2 -528 240 R0
SYMATTR InstName U5
SYMATTR Value TLC2272
SYMBOL res 96 96 R90
WINDOW 0 0 56 VBottom 2
WINDOW 3 32 56 VTop 2
SYMATTR InstName R1
SYMATTR Value 6.8k
SYMBOL cap 160 176 R0
SYMATTR InstName C1
SYMATTR Value 55µ
SYMBOL res -1232 336 R0
SYMATTR InstName LOAD1
SYMATTR Value 1k
SYMBOL res -1232 544 R0
WINDOW 3 55 83 Left 2
SYMATTR Value 30m
SYMATTR InstName R_Sense1
SYMBOL Opamps\\opamp2 -880 256 R0
SYMATTR InstName U2
SYMATTR Value TLC2272
SYMBOL res -800 528 R90
WINDOW 0 0 56 VBottom 2
WINDOW 3 32 56 VTop 2
SYMATTR InstName R2
SYMATTR Value 150k
SYMBOL res -976 560 R0
SYMATTR InstName R3
SYMATTR Value 1k
SYMBOL voltage -1216 352 R180
WINDOW 0 24 96 Left 2
WINDOW 3 24 16 Left 2
WINDOW 123 0 0 Left 0
WINDOW 39 0 0 Left 0
SYMATTR InstName V1
SYMATTR Value SINE(0 30.8 50)
SYMBOL voltage -1184 -16 R0
WINDOW 123 0 0 Left 0
WINDOW 39 0 0 Left 0
SYMATTR InstName V2
SYMATTR Value -5
SYMBOL diode -352 -32 R0
SYMATTR InstName D1
SYMATTR Value 1N4148
SYMBOL diode -320 256 R180
WINDOW 0 24 64 Left 2
WINDOW 3 24 0 Left 2
SYMATTR InstName D2
SYMATTR Value 1N4148
SYMBOL cap -1232 448 R0
SYMATTR InstName C2
SYMATTR Value 33µ
SYMBOL Opamps\\opamp2 320 32 R0
SYMATTR InstName U4
SYMATTR Value TLC2272
SYMBOL res 224 224 R0
SYMATTR InstName R4
SYMATTR Value 1k
SYMBOL res 464 160 R90
WINDOW 0 6 54 VBottom 2
WINDOW 3 32 56 VTop 2
SYMATTR InstName R5
SYMATTR Value 5.6k
TEXT -1392 -352 Left 2 !.inc DigitalLogic.lib
TEXT -1392 -384 Left 2 !.tran 0 2.5 0 1
TEXT -1392 -328 Left 2 !.inc TL081.lib
TEXT -1392 -304 Left 2 !.inc TLC2272.lib
