Version 4
SHEET 1 4308 2388
WIRE 1904 512 1712 512
WIRE 1952 512 1904 512
WIRE 2096 512 2032 512
WIRE 2176 512 2096 512
WIRE 2528 512 2176 512
WIRE 2560 512 2528 512
WIRE 2096 576 1904 576
WIRE 1904 592 1904 576
WIRE 2528 608 2528 512
WIRE 2608 608 2528 608
WIRE 1472 640 1424 640
WIRE 1712 640 1712 512
WIRE 1712 640 1680 640
WIRE 1472 672 1440 672
WIRE 1776 672 1680 672
WIRE 1808 672 1776 672
WIRE 2048 672 1888 672
WIRE 2176 672 2176 512
WIRE 2176 672 2048 672
WIRE 2400 672 2384 672
WIRE 1136 688 1056 688
WIRE 1248 688 1200 688
WIRE 1312 688 1312 656
WIRE 1312 688 1248 688
WIRE 1392 688 1312 688
WIRE 1424 688 1424 640
WIRE 1424 688 1392 688
WIRE 1392 704 1392 688
WIRE 1440 704 1440 672
WIRE 1472 704 1440 704
WIRE 1712 704 1680 704
WIRE 1056 720 1056 688
WIRE 1248 720 1248 688
WIRE 2048 720 2048 672
WIRE 2160 720 2048 720
WIRE 2208 720 2160 720
WIRE 2304 720 2272 720
WIRE 2384 720 2384 672
WIRE 2384 720 2304 720
WIRE 1776 736 1776 672
WIRE 1808 736 1808 672
WIRE 1824 736 1808 736
WIRE 1888 736 1888 672
WIRE 2160 736 2160 720
WIRE 2304 736 2304 720
WIRE 1056 832 1056 800
WIRE 1248 832 1248 784
WIRE 1248 832 1056 832
WIRE 1392 832 1392 768
WIRE 1392 832 1248 832
WIRE 1440 832 1440 704
WIRE 1440 832 1392 832
WIRE 1568 832 1440 832
WIRE 1712 832 1712 704
WIRE 1712 832 1568 832
WIRE 1776 832 1776 816
WIRE 1776 832 1712 832
WIRE 2160 832 2160 800
WIRE 2160 832 1776 832
WIRE 2208 832 2160 832
WIRE 2240 832 2240 784
WIRE 2240 832 2208 832
WIRE 2304 832 2304 800
WIRE 2304 832 2240 832
WIRE 2208 864 2208 832
WIRE 1568 880 1568 832
WIRE 1504 944 1280 944
WIRE 2608 944 2608 608
WIRE 2608 944 1504 944
WIRE 1504 1024 1504 944
WIRE 1280 1072 1280 1024
WIRE 1360 1072 1280 1072
WIRE 1280 1088 1280 1072
WIRE 1520 1120 1504 1120
WIRE 1280 1200 1280 1168
WIRE 1520 1232 1520 1120
WIRE 1696 1232 1520 1232
WIRE 1888 1232 1760 1232
WIRE 1936 1232 1888 1232
WIRE 2048 1232 2000 1232
WIRE 2192 1232 2048 1232
WIRE 2240 1232 2192 1232
WIRE 1136 1248 1056 1248
WIRE 1888 1312 1888 1232
WIRE 1280 1328 1280 1296
WIRE 1520 1344 1520 1232
WIRE 2192 1376 2192 1232
WIRE 1056 1392 1056 1248
WIRE 1376 1392 1056 1392
WIRE 2048 1392 2048 1232
WIRE 1056 1440 1056 1392
WIRE 1520 1472 1520 1440
WIRE 1056 1584 1056 1520
WIRE 1520 1584 1520 1552
WIRE 1520 1584 1056 1584
WIRE 1888 1584 1888 1376
WIRE 1888 1584 1520 1584
WIRE 2048 1584 2048 1456
WIRE 2048 1584 1888 1584
WIRE 2192 1584 2192 1440
WIRE 2192 1584 2048 1584
WIRE 1056 1616 1056 1584
FLAG 1568 880 0
FLAG 1904 592 0
FLAG 2208 864 0
FLAG 1056 1616 0
FLAG 2240 1232 -5V_charge_pump
IOPIN 2240 1232 Out
FLAG 2560 512 +12V_switchmode
IOPIN 2560 512 Out
FLAG 2400 672 +5V_LM7805
IOPIN 2400 672 Out
FLAG 1312 656 Rectifier_Ouput
IOPIN 1312 656 Out
FLAG 1280 1408 0
SYMBOL voltage 1056 704 R0
WINDOW 0 -100 -37 Left 2
WINDOW 123 0 0 Left 2
WINDOW 39 0 0 Left 2
WINDOW 3 -219 101 Left 2
SYMATTR InstName V_source_RMS1
SYMATTR Value SINE(0 30.8 50)
SYMBOL diode 1136 704 R270
WINDOW 0 32 32 VTop 2
WINDOW 3 0 32 VBottom 2
SYMATTR InstName D3
SYMBOL cap 1232 720 R0
SYMATTR InstName C5
SYMATTR Value 150µ
SYMBOL AutoGenerated\\LM2595_ADJ_TRANS 1568 672 R0
WINDOW 3 8 56 Top 2
SYMATTR InstName U2
SYMBOL cap 1376 704 R0
WINDOW 3 -43 54 Left 2
WINDOW 0 -24 10 Left 2
SYMATTR Value 122µ
SYMATTR InstName C6
SYMBOL schottky 1920 576 R180
WINDOW 0 -36 39 Left 2
WINDOW 3 -86 14 Left 2
SYMATTR InstName D4
SYMATTR Value 1N5822
SYMBOL res 1760 720 R0
WINDOW 0 -29 56 Left 2
WINDOW 3 37 51 Left 2
SYMATTR InstName R4
SYMATTR Value 1k
SYMBOL res 1904 656 R90
WINDOW 0 -3 55 VBottom 2
WINDOW 3 26 55 VTop 2
SYMATTR InstName R5
SYMATTR Value 8.2k
SYMBOL cap 1888 720 R90
WINDOW 0 43 5 VBottom 2
WINDOW 3 32 32 VTop 2
SYMATTR InstName Cff
SYMATTR Value 3.7n
SYMBOL ind 1936 528 R270
WINDOW 0 32 56 VTop 2
WINDOW 3 13 90 VBottom 2
SYMATTR InstName L1
SYMATTR Value 68µ
SYMBOL cap 2080 512 R0
WINDOW 0 21 13 Left 2
WINDOW 3 21 55 Left 2
SYMATTR InstName C7
SYMATTR Value 122µ
SYMBOL cap 2144 736 R0
SYMATTR InstName C1
SYMATTR Value 0.33µ
SYMBOL cap 2288 736 R0
SYMATTR InstName C2
SYMATTR Value 0.1µ
SYMBOL npn 1216 1200 R0
SYMATTR InstName Q1
SYMATTR Value 2N3904
SYMBOL npn 1440 1024 R0
WINDOW 3 56 68 Invisible 2
SYMATTR Value 2N3904
SYMATTR InstName Q2
SYMBOL npn 1456 1344 R0
SYMATTR InstName Q3
SYMATTR Value 2N3904
SYMBOL voltage 1056 1424 R0
WINDOW 123 0 0 Left 0
WINDOW 39 0 0 Left 0
SYMATTR InstName V1
SYMATTR Value PULSE(0 5 0 0 0 50u 100u)
SYMBOL res 1232 1232 R90
WINDOW 0 0 56 VBottom 2
WINDOW 3 32 56 VTop 2
SYMATTR InstName R1
SYMATTR Value 1k
SYMBOL res 1472 1376 R90
WINDOW 0 0 56 VBottom 2
WINDOW 3 32 56 VTop 2
SYMATTR InstName R2
SYMATTR Value 1k
SYMBOL res 1264 928 R0
SYMATTR InstName R3
SYMATTR Value 1k
SYMBOL res 1456 1056 R90
WINDOW 0 0 56 VBottom 2
WINDOW 3 32 56 VTop 2
SYMATTR InstName R6
SYMATTR Value 3.9k
SYMBOL res 1504 1456 R0
SYMATTR InstName R8
SYMATTR Value 33
SYMBOL cap 1760 1216 R90
WINDOW 0 0 32 VBottom 2
WINDOW 3 32 32 VTop 2
SYMATTR InstName C3
SYMATTR Value 10µ
SYMBOL diode 2000 1216 R90
WINDOW 0 0 32 VBottom 2
WINDOW 3 32 32 VTop 2
SYMATTR InstName D1
SYMATTR Value 1N4148
SYMBOL diode 1872 1312 R0
SYMATTR InstName D2
SYMATTR Value 1N4148
SYMBOL cap 2032 1392 R0
SYMATTR InstName C4
SYMATTR Value 100µ
SYMBOL zener 2176 1376 R0
WINDOW 0 -31 34 Left 2
SYMATTR InstName D5
SYMATTR Value 1N750
SYMBOL AutoGenerated\\LM7805 2240 752 R0
SYMATTR InstName U1
SYMBOL voltage 1280 1072 R0
WINDOW 123 0 0 Left 0
WINDOW 39 0 0 Left 0
SYMATTR InstName V2
SYMATTR Value 0
SYMBOL voltage 1280 1312 R0
WINDOW 123 0 0 Left 0
WINDOW 39 0 0 Left 0
SYMATTR InstName V3
SYMATTR Value 0
TEXT 2304 1000 Left 2 !.tran 0 0.5 0 0.1
TEXT 2296 1040 Left 2 !.inc LM2595_ADJ_TRANS.LIB
TEXT 2296 1072 Left 2 !.inc ST_POWER_SCHOTTKY_V6.LIB
TEXT 2296 1104 Left 2 !.inc 2N3904.lib
TEXT 2296 1136 Left 2 !.inc LM78XX_RS.lib
