Version 4
SHEET 1 880 680
WIRE 128 128 48 128
WIRE 176 128 128 128
WIRE 272 128 240 128
WIRE 320 128 272 128
WIRE 352 128 320 128
WIRE 128 144 128 128
WIRE 272 144 272 128
WIRE 352 144 352 128
WIRE 48 240 48 208
WIRE 128 240 128 208
WIRE 128 240 48 240
WIRE 176 240 128 240
WIRE 208 240 208 192
WIRE 208 240 176 240
WIRE 272 240 272 208
WIRE 272 240 208 240
WIRE 352 240 352 224
WIRE 352 240 272 240
WIRE 176 272 176 240
FLAG 176 272 0
FLAG 320 128 V_out
SYMBOL voltage 48 112 R0
WINDOW 0 0 -5 Left 2
WINDOW 3 -65 49 Left 2
SYMATTR InstName V1
SYMATTR Value 12
SYMBOL cap 112 144 R0
SYMATTR InstName C1
SYMATTR Value 0.33µ
SYMBOL cap 256 144 R0
SYMATTR InstName C2
SYMATTR Value 0.1µ
SYMBOL AutoGenerated\\LM7805 208 160 R0
SYMATTR InstName U2
SYMBOL res 336 128 R0
SYMATTR InstName R1
SYMATTR Value 100
TEXT -48 48 Left 2 !.inc LM78XX_RS.lib
TEXT -48 72 Left 2 !.tran 0 1 0 0.1
